data_AMSinput
_cell_length_a    7.38979
_cell_length_b    7.63845
_cell_length_c    9.82682
_cell_angle_alpha   90.91724
_cell_angle_beta   90.02782
_cell_angle_gamma   99.66081
loop_
_atom_site_type_symbol
_atom_site_fract_x
_atom_site_fract_y
_atom_site_fract_z
O 0.004731104877156439 0.001955695552989311 0.996653913697347
C 0.5424211705350225 0.84712491576504 0.748084982574279
O 0.5039756950132983 0.9987445965990757 0.7426497147257585
N 0.5740288798063461 0.768157754177715 0.8674884195938655
C 0.6256706352963078 0.6043342081819107 0.8655395492855341
N 0.6504724647055421 0.5284956827067114 0.9859744370879809
C 0.6520226327111018 0.5157507308880381 0.7387451315677664
C 0.6163787015546379 0.5956609536198323 0.6203325551080668
H 0.5291696408754826 0.8179487671247203 0.5327911528384097
H 0.6950880523599356 0.4099366329369659 0.9869255734679626
H 0.6307051215483925 0.5891672518241877 0.07577277920357847
H 0.6999752786373277 0.388535117224042 0.7393062553893106
H 0.6313786563503498 0.5347845797183848 0.5187423375573614
N 0.5598243474192619 0.7578972344414072 0.6227851381918466
N 0.5106021009492209 0.9369823449524908 0.1250290817262067
C 0.5277968949429132 0.853839549088513 0.2507902443801674
O 0.5657038503702612 0.7016432621896739 0.2459446439633578
N 0.4958680224223384 0.9380029347752412 0.3696833275872534
C 0.4449893716730489 0.1019330383248375 0.3665131525428203
N 0.4213151041492637 0.1833185709009138 0.4865645944342814
C 0.4182075549261348 0.1844871030041557 0.2392995578130135
C 0.4526793319930071 0.09855483462301746 0.1214411234894614
H 0.5423285390108301 0.8743677832488247 0.03539474702075149
H 0.3770474328549691 0.3025802361250927 0.4869244396942554
H 0.4345281454060631 0.1240400286768087 0.576432850042349
H 0.3709419714668327 0.3120558877170665 0.2390456653026258
H 0.4382575655173824 0.15429145914531 0.01946088360347518
N 0.006650203704105434 0.9512013336876817 0.6189319269540906
C 0.02444542735115376 0.8621833015153514 0.4934321990678179
O 0.06573726111657992 0.7117640910283333 0.4998345267717197
N 0.9907086325304979 0.939817394169257 0.3740160329603939
C 0.9371089680537968 0.1027810364063295 0.3756305491177144
N 0.9121994294005784 0.1784310375336632 0.2553304607181207
C 0.9081908257267394 0.1900237186714281 0.5025818377704175
C 0.9453832905711052 0.1112651531293428 0.621088383481896
H 0.04078771952289127 0.8928619651040843 0.7082719024797793
H 0.8734914364410935 0.3005255806044425 0.2553008339444397
H 0.9335573691502642 0.119686339717336 0.1652828547861374
H 0.8575623310385759 0.316094440088592 0.5022286604580468
H 0.9288820580096866 0.1717343030150884 0.722549031745384
N 0.06603746659023586 0.7700695020627387 0.1189679276515448
C 0.04552456673567456 0.8510069411644987 0.9927554856988543
N 0.078734754754561 0.7677811337136248 0.8738328189972333
C 0.1302419849219435 0.6042177185834869 0.8776146755253365
N 0.1492927904638628 0.5209631250192184 0.7575319324048597
C 0.1596526860028164 0.5230604659188122 0.005027516232218909
C 0.1240240655872224 0.6086479493459191 0.1228382075937934
H 0.03519127560649232 0.8341428120981789 0.2086974495916958
H 0.1968953047087757 0.4031420798502766 0.7571347916785632
H 0.1370622446450497 0.5812408527787021 0.6678050392592312
H 0.2092192572364477 0.3965787349351078 0.005317989541536951
H 0.1393884428599201 0.5534290771373084 0.2248352543131151
O 0.7495077567972969 0.1891690124197888 0.9123557566691242
H 0.8292800103164659 0.1095660090239744 0.9393047508014253
H 0.655212754267982 0.1243549502490246 0.8556280921049777
O 0.3207638177870015 0.5203545828955981 0.4165591311462155
H 0.2413873266633075 0.602876697730808 0.4423199306122444
H 0.4153673175929464 0.5806680938687122 0.3587531931670415
O 0.8196699589364846 0.5142219165587021 0.3333594064777559
H 0.73956287903609 0.5933691163275415 0.3050286864054497
H 0.9151357446612158 0.5802915295067728 0.3897159013136667
O 0.2498144231715516 0.1889624333189183 0.8295399191990331
H 0.3289510257326255 0.1089227639341589 0.8014470829773831
H 0.1548851241954061 0.1250706817624268 0.8850919261224811
